Info: SIMULATION PARAMETERS:
Info: TIMESTEP               1
Info: NUMBER OF STEPS        0
Info: STEPS PER CYCLE        20
Info: PERIODIC CELL BASIS 1  33.6529 0 0
Info: PERIODIC CELL BASIS 2  0 33.6529 0
Info: PERIODIC CELL BASIS 3  0 0 33.6529
Info: PERIODIC CELL CENTER   0 0 0
Info: FIRST LDB TIMESTEP     100
Info: LAST LDB TIMESTEP     -1
Info: HOM BACKGROUND SCALING 1
Info: PME BACKGROUND SCALING 1
Info: MIN ATOMS PER PATCH    40
Info: VELOCITY FILE          equilibrate_200.restart.vel
Info: CENTER OF MASS MOVING INITIALLY? NO
Info: DIELECTRIC             1
Info: EXCLUDE                SCALED ONE-FOUR
Info: 1-4 ELECTROSTATICS SCALED BY 1
Info: MODIFIED 1-4 VDW PARAMETERS WILL BE USED
Info: DCD FILENAME           production_200.dcd
Info: DCD FREQUENCY          1000
Info: DCD FIRST STEP         1000
Info: DCD FILE WILL CONTAIN UNIT CELL DATA
Info: XST FILENAME           production_200.xst
Info: XST FREQUENCY          1000
Info: NO VELOCITY DCD OUTPUT
Info: NO FORCE DCD OUTPUT
Info: OUTPUT FILENAME        production_200
Info: BINARY OUTPUT FILES WILL BE USED
Info: RESTART FILENAME       production_200.restart
Info: RESTART FREQUENCY      1000
Info: BINARY RESTART FILES WILL BE USED
Info: SWITCHING ACTIVE
Info: SWITCHING ON           10
Info: SWITCHING OFF          12
Info: PAIRLIST DISTANCE      14
Info: PAIRLIST SHRINK RATE   0.01
Info: PAIRLIST GROW RATE     0.01
Info: PAIRLIST TRIGGER       0.3
Info: PAIRLISTS PER CYCLE    2
Info: PAIRLISTS ENABLED
Info: MARGIN                 0.495
Info: HYDROGEN GROUP CUTOFF  2.5
Info: PATCH DIMENSION        16.995
Info: ENERGY OUTPUT STEPS    1000
Info: CROSSTERM ENERGY INCLUDED IN DIHEDRAL
Info: TIMING OUTPUT STEPS    1000
Info: PRESSURE OUTPUT STEPS  1000
Info: LANGEVIN DYNAMICS ACTIVE
Info: LANGEVIN TEMPERATURE   200
Info: LANGEVIN USING BBK INTEGRATOR
Info: LANGEVIN DAMPING COEFFICIENT IS 1 INVERSE PS
Info: LANGEVIN DYNAMICS NOT APPLIED TO HYDROGENS
Info: LANGEVIN PISTON PRESSURE CONTROL ACTIVE
Info:        TARGET PRESSURE IS 1.01325 BAR
Info:     OSCILLATION PERIOD IS 100 FS
Info:             DECAY TIME IS 50 FS
Info:     PISTON TEMPERATURE IS 200 K
Info:       PRESSURE CONTROL IS ATOM-BASED
Info:    INITIAL STRAIN RATE IS -6.82223e-05 -6.82223e-05 -6.82223e-05
Info:       CELL FLUCTUATION IS ISOTROPIC
Info: PARTICLE MESH EWALD (PME) ACTIVE
Info: PME TOLERANCE               1e-06
Info: PME EWALD COEFFICIENT       0.257952
Info: PME INTERPOLATION ORDER     6
Info: PME GRID DIMENSIONS         40 40 40
Info: PME MAXIMUM GRID SPACING    1
Info: FULL ELECTROSTATIC EVALUATION FREQUENCY      1
Info: USING VERLET I (r-RESPA) MTS SCHEME.
Info: C1 SPLITTING OF LONG RANGE ELECTROSTATICS
Info: PLACING ATOMS IN PATCHES BY HYDROGEN GROUPS
Info: RANDOM NUMBER SEED     1560060011
Info: USE HYDROGEN BONDS?    NO
Info: COORDINATE PDB         crd.md18_vmd_autopsf.pdb
Info: STRUCTURE FILE         Q42.psf
Info: PARAMETER file: CHARMM format!
Info: PARAMETERS             par_all27_prot_lipid.inp
Info: USING ARITHMETIC MEAN TO COMBINE L-J SIGMA PARAMETERS
Info: BINARY COORDINATES     equilibrate_200.restart.coor
Info: SUMMARY OF PARAMETERS:
Info: 180 BONDS
Info: 447 ANGLES
Info: 566 DIHEDRAL
Info: 46 IMPROPER
Info: 6 CROSSTERM
Info: 120 VDW
Info: 0 VDW_PAIRS
Info: 0 NBTHOLE_PAIRS
Info: STRUCTURE SUMMARY:
Info: 3692 ATOMS
Info: 2256 BONDS
Info: 1128 ANGLES
Info: 0 DIHEDRALS
Info: 0 IMPROPERS
Info: 0 CROSSTERMS
Info: 0 EXCLUSIONS
Info: 11076 DEGREES OF FREEDOM
Info: 1436 HYDROGEN GROUPS
Info: 3 ATOMS IN LARGEST HYDROGEN GROUP
Info: 1436 MIGRATION GROUPS
Info: 3 ATOMS IN LARGEST MIGRATION GROUP
Info: TOTAL MASS = 26849.6 amu
Info: TOTAL CHARGE = 0 e
Info: MASS DENSITY = 1.16985 g/cm^3
Info: ATOM DENSITY = 0.0968709 atoms/A^3
Info: ADDED 3384 IMPLICIT EXCLUSIONS
Info: NONBONDED TABLE R-SQUARED SPACING: 0.0625
Info: NONBONDED TABLE SIZE: 769 POINTS
Info: REMOVING COM VELOCITY -0.133361 -0.0549908 -0.0304334
TCL: Running for 40000 steps
ETITLE: TS BOND ANGLE DIHED IMPRP ELECT VDW BOUNDARY MISC KINETIC TOTAL TEMP POTENTIAL TOTAL3 TEMPAVG PRESSURE GPRESSURE VOLUME PRESSAVG GPRESSAVG
ENERGY: 0 1392.4448 770.4197 0.0000 0.0000 -52061.0978 4402.8159 0.0000 0.0000 3160.0824 -42335.3349 287.1480 -45495.4173 -42302.3254 287.1480 -976.4532 -33.9279 38112.5769 -976.4532 -33.9279
ENERGY: 8000 1206.3696 635.4788 0.0000 0.0000 -52999.7000 4529.1368 0.0000 0.0000 2446.4248 -44182.2900 222.2999 -46628.7148 -44156.6170 225.3621 -1244.4777 -718.3893 37745.1337 -10.4214 -10.6010
ENERGY: 16000 1064.1300 601.9268 0.0000 0.0000 -53247.7494 4675.1844 0.0000 0.0000 2262.8954 -44643.6128 205.6231 -46906.5082 -44622.3026 208.4069 1466.8199 407.1624 37255.5218 10.2398 9.5239
ENERGY: 24000 1021.3620 546.1455 0.0000 0.0000 -53121.9300 4558.7004 0.0000 0.0000 2232.9537 -44762.7684 202.9024 -46995.7221 -44741.7194 202.4306 -531.3677 -631.6518 37529.1981 -14.3510 -15.3600
ENERGY: 32000 1017.6742 614.6066 0.0000 0.0000 -53335.3501 4695.3729 0.0000 0.0000 2218.2968 -44789.3997 201.5706 -47007.6964 -44773.9106 201.8138 1476.4527 610.6802 37102.0620 32.7076 32.2432
ENERGY: 40000 1025.5935 586.2992 0.0000 0.0000 -53338.1340 4585.2977 0.0000 0.0000 2216.2350 -44924.7087 201.3832 -47140.9437 -44903.1358 199.8761 -918.9232 -719.5014 37428.2814 17.8191 19.9891
